LA200-GZ
*SPICE Netlist generated by Advanced Sim server on 2022/2/15 16:48:20

*Schematic Netlist:
LP2 NetDP4_K VCC

.SAVE 0 NetDP4_K VCC @LP2[i] @LP2[p]

*PLOT TRAN -1 1 A=NetDP4_K
*PLOT OP -1 1 A=NetDP4_K

*Selected Circuit Analyses:
.TRAN 2E-8 5E-6 0 2E-8
.OP

.END
